GuGrid_Curr_Seq.Txt

SYMMETRICAL COMPONENT CURRENTS BY CIRCUIT ELEMENT (first 3 phases)

Element                Term      I1         I2         %I2/I1    I0         %I0/I1   %Normal %Emergency

"VSOURCE.SOURCE" .....   1      164.31      0.71389     0.43  3.4442E-012     0.00      0.00     0.00
   -                     2      164.31      0.71389     0.43  3.4442E-012     0.00      0.00     0.00
"TRANSFORMER.TR1" ....   1      164.31      0.71389     0.43  6.0396E-014     0.00    190.55   139.74
   -                     2      4518.6       19.632     0.43     0.16742     0.00      0.00     0.00
"LINE.LINE1" .........   1      301.24       1.3088     0.43    0.011161     0.00     81.41    50.34
   -                     2      301.23       1.3088     0.43    0.011161     0.00      0.00     0.00
"LINE.LINE2" .........   1      301.24       1.3088     0.43    0.011161     0.00     81.41    50.34
   -                     2      301.23       1.3088     0.43    0.011161     0.00      0.00     0.00
"LINE.LINE3" .........   1      301.24       1.3088     0.43    0.011161     0.00     81.41    50.34
   -                     2      301.23       1.3088     0.43    0.011161     0.00      0.00     0.00
"LINE.LINE4" .........   1      301.24       1.3088     0.43    0.011161     0.00     81.41    50.34
   -                     2      301.23       1.3088     0.43    0.011161     0.00      0.00     0.00
"LINE.LINE5" .........   1      301.24       1.3088     0.43    0.011161     0.00     81.41    50.34
   -                     2      301.23       1.3088     0.43    0.011161     0.00      0.00     0.00
"LINE.LINE6" .........   1      301.24       1.3088     0.43    0.011161     0.00     81.41    50.34
   -                     2      301.23       1.3088     0.43    0.011161     0.00      0.00     0.00
"LINE.LINE7" .........   1      301.24       1.3088     0.43    0.011161     0.00     81.41    50.34
   -                     2      301.23       1.3088     0.43    0.011161     0.00      0.00     0.00
"LINE.LINE8" .........   1      301.24       1.3088     0.43    0.011161     0.00     81.41    50.34
   -                     2      301.23       1.3088     0.43    0.011161     0.00      0.00     0.00
"LINE.LINE9" .........   1      301.24       1.3088     0.43    0.011161     0.00     81.41    50.34
   -                     2      301.23       1.3088     0.43    0.011161     0.00      0.00     0.00
"LINE.LINE10" ........   1      301.24       1.3088     0.43    0.011161     0.00     81.41    50.34
   -                     2      301.23       1.3088     0.43    0.011161     0.00      0.00     0.00
"LINE.LINE11" ........   1      301.24       1.3088     0.43    0.011161     0.00     81.41    50.34
   -                     2      301.23       1.3088     0.43    0.011161     0.00      0.00     0.00
"LINE.LINE12" ........   1      301.24       1.3088     0.43    0.011161     0.00     81.41    50.34
   -                     2      301.23       1.3088     0.43    0.011161     0.00      0.00     0.00
"LINE.LINE13" ........   1      301.24       1.3088     0.43    0.011161     0.00     81.41    50.34
   -                     2      301.23       1.3088     0.43    0.011161     0.00      0.00     0.00
"LINE.LINE14" ........   1      301.24       1.3088     0.43    0.011161     0.00     81.41    50.34
   -                     2      301.23       1.3088     0.43    0.011161     0.00      0.00     0.00
"LINE.LINE15" ........   1      301.24       1.3088     0.43    0.011161     0.00     81.41    50.34
   -                     2      301.23       1.3088     0.43    0.011161     0.00      0.00     0.00
"LINE.TOLOAD7" .......   1      225.41      0.20778     0.09      0.9482     0.42     61.05    37.75
   -                     2       225.4      0.20777     0.09      0.9482     0.42      0.00     0.00
"LINE.ARNAVAGEN1_1" ..   1      365.58      0.33699     0.09      1.3535     0.37     98.96    61.19
   -                     2      365.58      0.33699     0.09      1.3535     0.37      0.00     0.00
"LINE.ARNAVAGEN1_2" ..   1      365.58      0.33699     0.09      1.3535     0.37     98.96    61.19
   -                     2      365.58      0.33699     0.09      1.3535     0.37      0.00     0.00
"LINE.ARNAVAGEN2_1" ..   1      236.95      0.21842     0.09     0.86923     0.37     64.14    39.66
   -                     2      236.95      0.21842     0.09     0.86923     0.37      0.00     0.00
"LINE.ARNAVAGEN2_2" ..   1      236.95      0.21842     0.09     0.86923     0.37     64.14    39.66
   -                     2      236.95      0.21842     0.09     0.86923     0.37      0.00     0.00
"LINE.TOCHURCH" ......   1      196.35      0.18099     0.09     0.72714     0.37     53.15    32.87
   -                     2      196.35      0.18099     0.09     0.72714     0.37      0.00     0.00
"LINE.ARNAVAGENNORTH"    1      5.0663    0.0046701     0.09    0.018775     0.37      1.37     0.85
   -                     2      5.0636    0.0046675     0.09    0.018774     0.37      0.00     0.00
"LINE.ARNAVAGEN3" ....   1      76.739     0.070737     0.09     0.27074     0.35     20.77    12.84
   -                     2      76.735     0.070733     0.09     0.27073     0.35      0.00     0.00
"LINE.JUNCTION1EAST1"    1      356.43       1.9821     0.56     0.37108     0.10     96.49    59.66
   -                     2      356.43       1.9821     0.56     0.37108     0.10      0.00     0.00
"LINE.JUNCTION1EAST2"    1      356.43       1.9821     0.56     0.37108     0.10     96.49    59.66
   -                     2      356.43       1.9821     0.56     0.37108     0.10      0.00     0.00
"LINE.JUNCTION1EAST3"    1      356.43       1.9821     0.56     0.37108     0.10     96.49    59.66
   -                     2      356.43       1.9821     0.56     0.37108     0.10      0.00     0.00
"LINE.JUNCTION1EAST4"    1      356.43       1.9821     0.56     0.37108     0.10     96.49    59.66
   -                     2      356.43       1.9821     0.56     0.37108     0.10      0.00     0.00
"LINE.JUNCTION1EAST5"    1      356.43       1.9821     0.56     0.37108     0.10     96.49    59.66
   -                     2      356.43       1.9821     0.56     0.37108     0.10      0.00     0.00
"LINE.JUNCTION1EAST6"    1      356.43       1.9821     0.56     0.37108     0.10     96.49    59.66
   -                     2      356.43       1.9821     0.56     0.37108     0.10      0.00     0.00
"LINE.JUNCTION1EAST7"    1      356.43       1.9821     0.56     0.37108     0.10     96.49    59.66
   -                     2      356.43       1.9821     0.56     0.37108     0.10      0.00     0.00
"LINE.JUNCTION1EAST8"    1      356.43       1.9821     0.56     0.37108     0.10     96.49    59.66
   -                     2      356.43       1.9821     0.56     0.37108     0.10      0.00     0.00
"LINE.JUNCTION1EAST9"    1      356.43       1.9821     0.56     0.37108     0.10     96.49    59.66
   -                     2      356.43       1.9821     0.56     0.37108     0.10      0.00     0.00
"LINE.JUNCTION1EAST10"   1      356.43       1.9821     0.56     0.37108     0.10     96.49    59.66
   -                     2      356.43       1.9821     0.56     0.37108     0.10      0.00     0.00
"LINE.HOUSES1_1" .....   1      366.29      0.43242     0.12      1.5453     0.42     99.21    61.34
   -                     2      366.29      0.43242     0.12      1.5453     0.42      0.00     0.00
"LINE.HOUSES1_2" .....   1      366.29      0.43242     0.12      1.5453     0.42     99.21    61.34
   -                     2      366.29      0.43242     0.12      1.5453     0.42      0.00     0.00
"LINE.HOUSES1_3" .....   1      366.29      0.43242     0.12      1.5453     0.42     99.21    61.34
   -                     2      366.29      0.43242     0.12      1.5453     0.42      0.00     0.00
"LINE.HOUSES2_1" .....   1      455.18      0.53736     0.12       1.895     0.42    123.28    76.23
   -                     2      455.18      0.53736     0.12       1.895     0.42      0.00     0.00
"LINE.HOUSES2_2" .....   1      455.18      0.53736     0.12       1.895     0.42    123.28    76.23
   -                     2      455.18      0.53736     0.12       1.895     0.42      0.00     0.00
"LINE.JUNCTION2NORTH1"   1       472.8        6.938     1.47      4.4427     0.94    129.81    80.27
   -                     2      472.79        6.938     1.47      4.4427     0.94      0.00     0.00
"LINE.JUNCTION2NORTH2"   1       472.8        6.938     1.47      4.4427     0.94    129.81    80.27
   -                     2      472.79        6.938     1.47      4.4427     0.94      0.00     0.00
"LINE.JUNCTION2NORTH3"   1       472.8        6.938     1.47      4.4427     0.94    129.81    80.27
   -                     2      472.79        6.938     1.47      4.4427     0.94      0.00     0.00
"LINE.TOLOAD1_1" .....   1      334.06      0.65156     0.20      2.1634     0.65     90.68    56.07
   -                     2      334.06      0.65155     0.20      2.1634     0.65      0.00     0.00
"LINE.TOLOAD1_2" .....   1      334.06      0.65156     0.20      2.1634     0.65     90.68    56.07
   -                     2      334.06      0.65155     0.20      2.1634     0.65      0.00     0.00
"LINE.TOLOAD1_3" .....   1      334.06      0.65156     0.20      2.1634     0.65     90.68    56.07
   -                     2      334.06      0.65155     0.20      2.1634     0.65      0.00     0.00
"LINE.TOFOOTBALL" ....   1      22.501       22.504   100.01      22.504   100.01     18.20    11.25
   -                     2      22.504       22.504   100.00      22.504   100.00      0.00     0.00
"CAPACITOR.CAP1" .....   1       80.59      0.15718     0.20    0.033032     0.04      0.00     0.00
   -                     2       80.59      0.15718     0.20    0.033032     0.04      0.00     0.00
"CAPACITOR.CAP2" .....   1      535.43       1.0443     0.20     0.21946     0.04      0.00     0.00
   -                     2      535.43       1.0443     0.20     0.21946     0.04      0.00     0.00
"CAPACITOR.CAP3" .....   1      124.26       0.1467     0.12   0.0077123     0.01      0.00     0.00
   -                     2      124.26       0.1467     0.12   0.0077123     0.01      0.00     0.00
"CAPACITOR.CAP4" .....   1      570.44      0.67342     0.12      0.1114     0.02      0.00     0.00
   -                     2      570.44      0.67342     0.12      0.1114     0.02      0.00     0.00
"CAPACITOR.CAP5" .....   1      721.34      0.85157     0.12     0.03966     0.01      0.00     0.00
   -                     2      721.34      0.85157     0.12     0.03966     0.01      0.00     0.00
"CAPACITOR.CAP6" .....   1      253.05      0.49355     0.20     0.13563     0.05      0.00     0.00
   -                     2      253.05      0.49355     0.20     0.13563     0.05      0.00     0.00
"CAPACITOR.CAP7" .....   1      162.06      0.14938     0.09   0.0068615     0.00      0.00     0.00
   -                     2      162.06      0.14938     0.09   0.0068615     0.00      0.00     0.00
"CAPACITOR.CAP8" .....   1       41.86     0.038586     0.09   0.0070091     0.02      0.00     0.00
   -                     2       41.86     0.038586     0.09   0.0070091     0.02      0.00     0.00
"CAPACITOR.CAP9" .....   1       128.7      0.11864     0.09    0.036179     0.03      0.00     0.00
   -                     2       128.7      0.11864     0.09    0.036179     0.03      0.00     0.00
"CAPACITOR.CAP10" ....   1      256.73      0.23665     0.09    0.073205     0.03      0.00     0.00
   -                     2      256.73      0.23665     0.09    0.073205     0.03      0.00     0.00
"CAPACITOR.CAP11" ....   1      48.802     0.044984     0.09     0.01746     0.04      0.00     0.00
   -                     2      48.802     0.044984     0.09     0.01746     0.04      0.00     0.00
"CAPACITOR.CAP12" ....   1      3.2428    0.0029892     0.09  0.00093442     0.03      0.00     0.00
   -                     2      3.2428    0.0029892     0.09  0.00093442     0.03      0.00     0.00
"LOAD.LOAD1" .........   1      131.37      0.25622     0.20     0.85795     0.65      0.00     0.00
"LOAD.LOAD2" .........   1      874.55       1.7057     0.20      5.7115     0.65      0.00     0.00
"LOAD.LOAD3" .........   1      186.11       0.2197     0.12     0.84216     0.45      0.00     0.00
"LOAD.LOAD4" .........   1      909.62       1.0738     0.12      3.7382     0.41      0.00     0.00
"LOAD.LOAD5" .........   1      1024.1        1.209     0.12      5.0049     0.49      0.00     0.00
"LOAD.LOAD6" .........   1      396.32      0.77299     0.20      2.7607     0.70      0.00     0.00
"LOAD.LOAD7" .........   1      215.24       0.1984     0.09      0.9445     0.44      0.00     0.00
"LOAD.LOAD8" .........   1      59.357     0.054714     0.09     0.23849     0.40      0.00     0.00
"LOAD.LOAD9" .........   1      193.82      0.17866     0.09     0.71149     0.37      0.00     0.00
"LOAD.LOAD10" ........   1      387.23      0.35694     0.09      1.4174     0.37      0.00     0.00
"LOAD.LOAD11" ........   1      76.384     0.070409     0.09     0.26308     0.34      0.00     0.00
"LOAD.LOAD12" ........   1      5.0312    0.0046377     0.09    0.018371     0.37      0.00     0.00
"LOAD.LOAD13" ........   1      67.511            0     0.00           0     0.00      0.00     0.00
